88
File created by wolfsort 
C	1.125717	-0.643968	2.393831
C	1.233149	-1.077064	3.711583
C	0.110935	-1.721746	4.296502
C	-1.04928	-1.874669	3.571301
C	-1.157401	-1.376791	2.222313
N	-0.010248	-0.79496	1.652143
H	0.168891	-2.094434	5.325526
H	2.165083	-0.932802	4.264177
H	-1.92595	-2.362582	4.007776
C	-2.354331	-1.437855	1.497361
H	-3.241534	-1.826712	2.0087
C	2.294489	0.033945	1.711848
H	3.233709	-0.153273	2.259393
H	2.119073	1.123557	1.710139
P	-2.474438	-0.477478	0.009633
P	2.36563	-0.460092	-0.094742
C	-0.21473	0.096551	-2.390833
O	-0.343243	0.377065	-3.526549
C	0.249195	2.865062	0.134209
C	-3.312546	1.191487	0.535054
C	-4.79886	1.073324	0.918405
C	-2.557145	1.623571	1.812097
C	-3.148175	2.243759	-0.578719
H	-5.44725	0.867155	0.051578
H	-4.957502	0.287692	1.677213
H	-5.133269	2.033154	1.358616
H	-1.464831	1.581663	1.691215
H	-2.849073	2.659024	2.075298
H	-2.817723	0.966362	2.656948
H	-3.426928	3.242375	-0.191257
H	-2.11241	2.28348	-0.949396
H	-3.800525	2.033264	-1.439091
C	-3.70118	-1.377625	-1.160134
C	-4.191618	-0.430514	-2.271818
C	-2.969495	-2.551925	-1.830442
C	-4.889317	-1.973992	-0.37587
H	-4.868624	0.352188	-1.893888
H	-3.344347	0.05148	-2.789792
H	-4.753955	-1.018725	-3.021133
H	-2.542383	-3.239811	-1.084809
H	-3.698124	-3.116675	-2.442589
H	-2.165745	-2.202542	-2.496425
H	-5.551426	-2.504395	-1.086383
H	-4.535299	-2.710386	0.364676
H	-5.494222	-1.21811	0.143715
C	3.550615	0.821611	-0.951972
C	2.883864	1.187738	-2.293907
C	3.66393	2.085161	-0.077791
C	4.988386	0.345309	-1.232976
H	2.736369	0.30003	-2.931525
H	1.895989	1.647728	-2.138752
H	3.527962	1.903804	-2.838715
H	4.199995	1.888657	0.865986
H	4.233361	2.853774	-0.633969
H	2.67695	2.503388	0.162323
H	5.504967	1.14284	-1.799692
H	5.558838	0.176613	-0.306949
H	5.024157	-0.567773	-1.846709
C	3.194244	-2.187781	-0.029738
C	2.324769	-3.080505	0.889573
C	3.224116	-2.758849	-1.462699
C	4.614837	-2.200949	0.579406
H	2.49358	-2.837794	1.950896
H	1.248754	-2.995438	0.694059
H	2.620273	-4.133215	0.726401
H	3.844289	-2.145412	-2.138033
H	3.65998	-3.775006	-1.438285
H	2.215306	-2.83479	-1.892431
H	4.859265	-3.243101	0.855815
H	5.389111	-1.859361	-0.119415
H	4.678445	-1.597755	1.502155
C	-0.100737	-2.203769	-1.018968
O	-0.056839	-3.326301	-1.362099
Re	-0.063661	-0.345349	-0.521653
N	0.124439	1.716284	-0.064845
C	0.403175	4.308316	0.400172
C	1.141597	4.475201	1.753978
C	1.21692	4.947548	-0.754839
C	-0.995508	4.97061	0.480676
H	0.571185	4.004058	2.571331
H	2.146589	4.023982	1.720042
H	1.249248	5.55119	1.973655
H	0.700841	4.81011	-1.719261
H	1.320522	6.029238	-0.562575
H	2.222862	4.506028	-0.829404
H	-0.864894	6.044814	0.697633
H	-1.537415	4.866497	-0.472198
H	-1.601846	4.518145	1.280504
