60
Properties=species:S:1:pos:R:3 C16H38TaN5+=T P22=T Structure:=T pbc="F F F" Stoichiometry:=T
Ta      -0.62915575      -0.02242812       0.38404396 
N      -1.11887671      -0.63731483       2.24142307 
N      -1.65746921      -0.86771485      -1.14670402 
N      -1.73913609       1.70867588       0.46739727 
N       1.11584420      -1.11676613       0.18441475 
N       1.06302032       1.08285267       0.09066433 
C      -2.46918103      -1.02406495       2.62162113 
H      -2.86337645      -0.38647585       3.44251823 
H      -3.15534526      -0.92574042       1.76291130 
H      -2.50571464      -2.07907630       2.96780352 
C      -0.15361208      -0.76539720       3.32290964 
H       0.84960928      -0.47576857       2.97011664 
H      -0.42083668      -0.11727780       4.18502371 
H      -0.09925754      -1.81203570       3.69463859 
H      -3.50484717      -0.19820049      -0.35579816 
C      -3.11326677      -0.76069252      -1.21985319 
H      -3.58879477      -1.76424277      -1.23364160 
H      -3.43288686      -0.22729208      -2.14132230 
H      -1.30598326      -0.97845633      -3.24622138 
C      -1.10976956      -1.55023538      -2.31293084 
H      -1.57426036      -2.55221127      -2.43846498 
H      -0.02284792      -1.67157804      -2.20585030 
C      -2.01033887       2.48180310      -0.74041521 
H      -1.43109972       3.43052004      -0.76725713 
H      -1.74617779       1.89664496      -1.63784424 
H      -3.08627887       2.75289553      -0.80485270 
H      -1.44117007       3.40177915       1.74071133 
C      -2.05528437       2.47588490       1.66425287 
H      -3.12014252       2.79514071       1.66086134 
H      -1.87304996       1.86842682       2.56475810 
C       1.60153935      -2.48901744       0.18156255 
H       2.02014231      -2.72559783      -0.82411049 
C       0.42687537      -3.44300541       0.43822609 
H      -0.38374099      -3.27231302      -0.28907213 
H       0.75109515      -4.49548548       0.36196271 
H       0.01369755      -3.27612994       1.44892942 
C       2.72204807      -2.72294669       1.21431395 
H       3.06531405      -3.77249517       1.18022855 
H       3.59758808      -2.07831252       1.02464313 
H       2.35427612      -2.50995953       2.23405756 
H       1.86919895       4.25469417      -1.01138094 
C       1.74893502       3.16301383      -1.13827388 
H       2.68180315       2.77147655      -1.57911580 
H       0.93072156       2.98562473      -1.85600507 
C       1.42449808       2.49414355       0.21407784 
H       0.52018981       2.99416397       0.60402654 
C       2.54803884       2.72801015       1.23994333 
H       2.29294550       2.26311267       2.20840907 
H       3.50859565       2.30290702       0.89673451 
H       2.70298235       3.80936806       1.40288979 
H       2.73573026       0.05762128       0.92599771 
C       2.04757058       0.00072059       0.04952977 
C       2.43014210      -1.03110501      -3.48714083 
H       3.25237653      -1.75567537      -3.41775010 
H       1.82846482      -1.05325608      -4.40334853 
C       2.17322090      -0.16178888      -2.49690779 
H       1.33655333       0.54297109      -2.59965524 
C       2.94477247      -0.06021550      -1.21390441 
H       3.64290697      -0.91249208      -1.11894659 
H       3.57195056       0.85319711      -1.21864245 
