51
Properties=species:S:1:pos:R:3 end-aligned_to-start.xyz=T pbc="F F F"
C      -2.94367492      -0.03974080      -1.55678256 
C      -2.24781052       0.03824070      -0.32213716 
C      -3.04982128       0.06393921       0.84745252 
C      -4.45130091       0.01580096       0.78943757 
C      -5.11030683      -0.05385220      -0.44785286 
C      -4.34558505      -0.07843175      -1.62388203 
Ir      -0.20436464       0.14062009      -0.31822111 
P       0.16107347      -2.07286573      -0.88412255 
C       1.92518908      -2.18128295      -0.71600079 
C       2.65154202      -0.97538008      -0.54127780 
N       1.96034086       0.22368276      -0.35065602 
C       2.62905177       1.37705150      -0.06176503 
C       4.01659207       1.42144716       0.06908120 
C       4.74747311       0.23058793      -0.15223497 
C       4.08411779      -0.94190476      -0.46468074 
C       1.80213323       2.64487502       0.04395443 
P       0.01856610       2.28665987       0.47037313 
H       4.63533837      -1.87166046      -0.63493460 
H       4.51807038       2.36357042       0.30498526 
H       5.84083298       0.23859478      -0.07976886 
H       2.26680400       3.36915813       0.73582112 
H       1.76946458       3.12802005      -0.95282121 
H       2.04876729      -2.31243381       1.25543774 
H       2.47840964      -3.09106805      -0.98041094 
H      -2.37462501      -0.06955064      -2.49781901 
H      -4.84263404      -0.13420455      -2.60021988 
H      -6.20432138      -0.09042400      -0.49488525 
H      -5.03478551       0.03515243       1.71836783 
H      -2.56107890       0.12340528       1.82859400 
H      -0.14525267      -0.27177591       1.18809393 
O       0.05983406      -0.71755225       3.00806420 
H      -0.68749046      -1.33615058       3.09070510 
H       0.84240696      -1.30419063       2.77425417 
O       2.15367406      -2.21385198       2.24935720 
H       2.94296093      -1.64524394       2.31588890 
C      -0.13742536       2.51202862       2.28874446 
H       0.30866053       3.46578249       2.62004207 
H      -1.21252548       2.50164171       2.53695113 
H       0.32853691       1.65120238       2.79441723 
C      -0.89970058       3.72828819      -0.22202186 
H      -1.96893168       3.59673186       0.01407373 
H      -0.54255624       4.68570231       0.19666261 
H      -0.78713063       3.73794341      -1.31880123 
C      -0.35489222      -2.64803444      -2.56832687 
H      -0.00967166      -3.68142178      -2.74904101 
H      -1.45457994      -2.60620526      -2.65119523 
H       0.09257360      -1.98173867      -3.32380547 
C      -0.64067310      -3.32912636       0.20563665 
H      -1.73496731      -3.26537093       0.08093365 
H      -0.29357122      -4.34935111      -0.03396629 
H      -0.38561925      -3.09293566       1.25033450 
