37
File created by wolfsort 
Fe	-0.07344691	-0.20467371	-0.20105417
P	1.72289221	-1.04627218	-1.132646
P	-1.19563893	0.99427465	-1.76454353
N	0.6767878	-0.94757502	1.44646034
N	-1.47650645	0.42935651	0.98636386
H	0.05875864	-1.24016344	3.45673952
H	-2.15213388	0.08344745	2.97486008
H	-1.03330872	-1.97988604	2.24681051
C	-0.37574989	-1.09548153	2.44276697
H	-0.61889493	1.0111103	2.82976745
C	-1.2127322	0.17945728	2.39326465
H	0.92721486	-3.05206194	1.0189747
H	-3.18970412	1.59226957	1.26979641
C	1.49929132	-2.13782964	1.32528147
C	-2.44496363	1.23324746	0.53724312
H	3.17515773	-2.75040202	-0.0046905
C	2.60450466	-1.85631577	0.29823948
H	3.30140035	-1.10153349	0.70330061
H	-0.635335	2.08869673	-2.50814284
H	-1.70221913	0.31119436	-2.9144016
H	2.78045801	-0.3508759	-1.79745909
H	1.60429728	-2.09891957	-2.0846173
C	-0.96921989	-1.59000819	-0.65199819
O	-1.58435072	-2.5368155	-0.95806575
O	0.84907238	1.60781997	0.47056646
C	1.48417586	2.57652393	0.05168763
C	2.07832019	2.62776882	-1.33616477
C	1.69198334	3.77076443	0.95420656
H	1.96248444	-2.3859874	2.30600288
H	3.17446444	2.49931136	-1.25760696
H	1.66128894	1.82312912	-1.95651564
H	1.89991356	3.61051189	-1.80577037
H	1.40716071	3.5171633	1.9855336
H	2.73724584	4.12465804	0.91389992
H	1.05361028	4.60073091	0.59617691
C	-2.5437341	1.62291525	-0.79629929
H	-3.38077938	2.21436701	-1.17554513
