53
end-aligned_to-start.xyz
C 4.12077853 -0.6921347 -0.70445274
C 2.74063308 -0.7737634 -0.46412793
N 1.92678874 0.28760631 -0.74303298
C 2.44531595 1.43942765 -1.25951248
C 3.82145907 1.57133298 -1.48350742
C 4.67000141 0.49201626 -1.20698709
C 2.10702193 -1.99621391 0.14936452
P 0.28699405 -2.07057111 -0.2394324
Ir -0.17827999 0.17375628 -0.26930306
P -0.08635778 2.42690018 -0.57303153
C 1.45961969 2.52528445 -1.62732915
C -2.16643039 0.03007225 0.26224082
C -3.09406768 -0.7342079 -0.49078811
C -4.43485141 -0.88087053 -0.10224374
C -4.91361648 -0.25285158 1.05768571
C -4.02670965 0.52432153 1.81688036
C -2.68364359 0.65800121 1.4257319
O 1.91413607 -2.15387492 3.3222491
O -0.46176134 -0.81746542 3.40015596
H 4.754461 -1.55425347 -0.47727417
H 4.21504416 2.50804486 -1.88877475
H 5.74707714 0.57312751 -1.38452998
C 0.17286173 -2.99076581 -1.83183424
C -0.42687051 -3.23067953 0.98907012
H 1.93703811 3.5208284 -1.62888132
H 1.09607471 2.32151653 -2.65405179
H 2.13539715 -1.92215822 1.26458168
H 2.65762983 -2.91205147 -0.13054432
C -1.35936377 3.32259566 -1.54961829
C 0.24764941 3.54944921 0.84972864
H -2.75317633 -1.21839829 -1.41381249
H -5.11351524 -1.48654382 -0.71585962
H -5.96040951 -0.36370771 1.36188356
H -4.3795542 1.03000574 2.72456347
H -2.01193461 1.26044355 2.05011192
H 0.24455114 0.35109217 1.37078159
H -1.40227899 -1.03986726 3.27367712
H 0.99782229 -1.7884663 3.45511349
H 2.47479165 -1.42459634 3.64178726
H -0.63725358 0.06359256 -1.87821788
H -0.23757767 -0.32753451 2.55243079
H 0.60212227 -4.00539327 -1.75273646
H -0.88886023 -3.05896568 -2.12249424
H 0.70386781 -2.41192701 -2.60463203
H 0.09240497 -4.20387537 0.99137684
H -0.35530122 -2.75460056 1.97800283
H -1.49181294 -3.37002308 0.73733508
H 0.45776166 4.58522286 0.52898807
H -0.63408283 3.53932474 1.51250582
H 1.10338766 3.14329324 1.41309728
H -1.07304464 4.36768027 -1.76117986
H -1.52469586 2.76891967 -2.48753822
H -2.29856779 3.30398109 -0.97146963
