67
File created by wolfsort 
Fe	-0.772465	0.665003	-0.021624
C	-1.219901	0.145225	-1.620542
O	-1.514303	-0.117793	-2.725971
C	0.310118	-0.890978	0.349217
N	-0.65272	-1.695818	0.854036
C	-0.171453	-2.954082	1.20045
C	1.165384	-2.925448	0.895571
N	1.455477	-1.64591	0.379215
C	2.764982	-1.184442	0.014468
C	3.033982	-0.866689	-1.334317
C	4.311604	-0.375348	-1.649002
C	5.30693	-0.198691	-0.672381
C	4.998253	-0.528828	0.657813
C	3.735854	-1.023245	1.027173
C	3.431908	-1.345195	2.472783
H	4.129647	-0.815678	3.141517
H	2.400881	-1.06181	2.740492
H	3.531259	-2.427292	2.677056
H	5.755829	-0.384563	1.43735
C	6.678967	0.312079	-1.049936
H	7.208365	0.727362	-0.176314
H	6.616558	1.096212	-1.823894
H	7.302713	-0.504457	-1.460702
H	4.531583	-0.120855	-2.692745
C	1.979042	-1.006353	-2.402752
H	2.439348	-1.053374	-3.402792
H	1.359926	-1.905877	-2.250905
H	1.287695	-0.146189	-2.376623
H	1.936739	-3.688224	0.978705
H	-0.793354	-3.747931	1.610018
C	-1.846979	-0.849701	0.951279
C	-3.075745	-1.329009	0.290941
N	-4.218254	-0.700195	0.664219
C	-5.36156	-1.034871	0.051356
C	-5.457617	-2.013248	-0.947896
C	-4.279164	-2.673667	-1.328495
C	-3.07691	-2.331177	-0.708602
H	-2.138566	-2.813967	-0.998616
H	-4.298092	-3.445403	-2.106074
H	-6.421697	-2.24818	-1.409588
H	-6.259142	-0.49281	0.381742
H	-2.034091	-0.558769	1.9951
C	0.553239	2.232687	0.271529
C	-0.439228	2.601659	-0.696744
C	-1.748675	2.508164	-0.068853
C	-1.546208	2.116433	1.295352
C	-0.136134	1.924452	1.512982
C	0.517328	1.550676	2.812969
H	1.513167	1.11174	2.640702
H	-0.083152	0.813424	3.372607
H	0.651808	2.434941	3.465787
C	-2.640354	1.963015	2.313407
H	-2.270541	1.475077	3.23021
H	-3.473138	1.355919	1.916951
H	-3.031975	2.95704	2.601438
C	-3.073417	2.834227	-0.697457
H	-3.869979	2.198475	-0.277911
H	-3.051366	2.669339	-1.787246
H	-3.349632	3.892497	-0.52154
C	-0.172194	3.07747	-2.096954
H	-0.972144	2.770774	-2.790183
H	0.778643	2.673759	-2.48198
H	-0.105579	4.182002	-2.12487
C	2.04113	2.282179	0.075157
H	2.560409	1.544915	0.707396
H	2.318099	2.069384	-0.969656
H	2.437686	3.284476	0.331176

