39
File created by wolfsort 
Os	0.05833346	-0.1384737	0.59674285
H	0.07846814	0.92161326	-0.79461065
H	0.13060856	1.5402826	1.31403766
P	2.41684687	-0.12710378	0.50461809
P	-2.28718308	0.07588558	0.4806102
C	-3.33837729	-0.86425498	1.6734088
H	-4.41597286	-0.69159436	1.50197128
H	-3.11110185	-1.93806331	1.5676697
H	-3.06946156	-0.55915361	2.6982227
C	-2.88685132	1.81308328	0.64859664
H	-2.37878299	2.40043204	-0.13658093
H	-3.98206743	1.88121908	0.52495301
H	-2.60526178	2.21002198	1.63841836
C	-2.98618222	-0.4118031	-1.15593559
H	-2.77134922	-1.47743274	-1.339845
H	-4.07622171	-0.24156051	-1.20082745
H	-2.47714117	0.18361542	-1.931149
C	3.20730878	1.47471993	0.97352405
H	4.30488023	1.42780059	0.86348418
H	2.80287903	2.26280027	0.31671715
H	2.95631675	1.71536957	2.02034298
C	3.32527871	-1.35721028	1.54040934
H	2.98500082	-2.36796448	1.26015254
H	4.41928352	-1.28270141	1.40622696
H	3.06399871	-1.19102479	2.59844579
C	3.09309911	-0.43011613	-1.182926
H	2.66384026	0.32084069	-1.86597237
H	4.19560613	-0.37144728	-1.1952494
H	2.77327287	-1.43017902	-1.52011987
C	0.01097609	-1.72541433	-0.40676453
O	-0.01325397	-2.7224978	-1.0191518
H	-1.69015821	2.61510222	-2.71288418
H	-0.96410065	3.73111522	-1.66416534
H	1.28269035	2.49002047	-1.56667806
H	0.38317805	1.09470582	-2.85481529
B	0.28132857	1.99508962	-2.04801439
N	-0.87851532	2.83873506	-2.14329485
H	0.10123007	1.00431906	1.99866809
H	0.02122757	-1.07521816	2.01675233
