39
File created by wolfsort 
C	2.22934206	-1.26375759	0.68371909
C	2.2815872	0.17526736	0.24446482
N	1.07751903	0.68845263	-0.11138669
C	0.92766202	2.00760156	-0.39400028
C	2.03095097	2.8711241	-0.32952961
C	3.29042609	2.35206951	0.00062251
C	3.4215558	0.98597375	0.28562791
C	-0.46179965	2.43581733	-0.79321757
P	-1.72276986	1.2082952	-0.11988634
H	4.38916475	0.55422979	0.55754772
H	1.90090963	3.93478693	-0.54860748
H	4.1642322	3.01037348	0.03926767
C	1.72162376	-2.32599418	-1.46706228
C	0.89515918	-3.28121792	0.62809508
H	-0.55298064	2.35667091	-1.89411302
H	1.82326294	-1.25460762	1.71485737
H	3.22678123	-1.74481329	0.65077788
C	-3.194173	1.49854417	-1.18870498
C	-2.21535271	1.9262496	1.50994332
H	-4.01488282	0.85462369	-0.83033218
H	-3.52108836	2.55308519	-1.16892242
H	-2.94183227	1.19603757	-2.21784989
H	-3.08067893	1.35789888	1.89223815
H	-1.37026601	1.76188687	2.1990516
H	-2.47811893	2.99699945	1.44678261
H	1.80132425	-3.90283762	0.78450306
H	0.46084788	-2.97040985	1.59137142
H	0.15511648	-3.8511324	0.04676705
H	2.62583777	-2.96997336	-1.42745344
H	0.92624614	-2.8286664	-2.03557756
H	1.9628625	-1.37761512	-1.97011177
C	-1.96679093	-1.81207395	-0.21667655
O	-2.90250672	-2.51561928	-0.31712478
Ru	-0.52761306	-0.66165773	-0.10993849
H	-0.54751212	-0.60916247	-1.75694704
O	-0.14464432	-0.69054709	1.99512044
H	-0.95297155	-0.99660875	2.44148419
H	-0.66328457	3.48492011	-0.51170604
N	1.22496156	-2.03695347	-0.10513049
